powerfactory/powerfactory-converter/src/test/resources/Tower.xiidm
<?xml version="1.0" encoding="UTF-8"?>
<iidm:network xmlns:iidm="http://www.powsybl.org/schema/iidm/1_18" id="Tower" caseDate="2021-01-01T10:00:00.000+02:00" forecastDistance="0" sourceFormat="POWER-FACTORY" minimumValidationLevel="STEADY_STATE_HYPOTHESIS">
    <iidm:substation id="S9">
        <iidm:voltageLevel id="VL9" nominalV="400.0" topologyKind="NODE_BREAKER">
            <iidm:nodeBreakerTopology>
                <iidm:busbarSection id="VL9_1 Bus 1-Slack" node="0"/>
                <iidm:switch id="VL9_Switch" kind="BREAKER" open="false" node1="0" node2="1"/>
                <iidm:switch id="VL9_Switch#0" kind="BREAKER" open="false" node1="0" node2="2"/>
                <iidm:switch id="VL9_Switch#1" kind="BREAKER" open="false" node1="0" node2="3"/>
            </iidm:nodeBreakerTopology>
            <iidm:generator id="sym_1_1" energySource="OTHER" minP="0.0" maxP="50.290000915527344" targetP="50.290000915527344" localTargetV="423.9999771118164" localTargetQ="0.0" node="3">
                <iidm:minMaxReactiveLimits minQ="0.0" maxQ="0.0"/>
                <iidm:voltageRegulation mode="VOLTAGE" regulating="true"/>
            </iidm:generator>
        </iidm:voltageLevel>
    </iidm:substation>
    <iidm:substation id="S10">
        <iidm:voltageLevel id="VL10" nominalV="400.0" topologyKind="NODE_BREAKER">
            <iidm:nodeBreakerTopology>
                <iidm:busbarSection id="VL10_2 Bus 2" node="0"/>
                <iidm:switch id="VL10_Switch" kind="BREAKER" open="false" node1="0" node2="1"/>
                <iidm:switch id="VL10_Switch#0" kind="BREAKER" open="false" node1="0" node2="2"/>
                <iidm:switch id="VL10_Switch#1" kind="BREAKER" open="false" node1="0" node2="3"/>
            </iidm:nodeBreakerTopology>
        </iidm:voltageLevel>
    </iidm:substation>
    <iidm:substation id="S11">
        <iidm:voltageLevel id="VL11" nominalV="400.0" topologyKind="NODE_BREAKER">
            <iidm:nodeBreakerTopology>
                <iidm:busbarSection id="VL11_3 Bus 2-Load" node="0"/>
                <iidm:switch id="VL11_Switch" kind="BREAKER" open="false" node1="0" node2="1"/>
                <iidm:switch id="VL11_Switch#0" kind="BREAKER" open="false" node1="0" node2="2"/>
                <iidm:switch id="VL11_Switch#1" kind="BREAKER" open="false" node1="0" node2="3"/>
                <iidm:switch id="VL11_Switch#2" kind="BREAKER" open="false" node1="0" node2="4"/>
            </iidm:nodeBreakerTopology>
            <iidm:load id="lod_3_1" loadType="UNDEFINED" p0="50.0" q0="25.0" node="2"/>
        </iidm:voltageLevel>
    </iidm:substation>
    <iidm:line id="lne_1_2_1" r="31.007963180541992" x="94.67198181152344" b1="1.0815001583099366E-4" b2="1.0815001583099366E-4" node1="1" voltageLevelId1="VL9" node2="1" voltageLevelId2="VL10"/>
    <iidm:line id="lne_1_3_1" r="31.007963180541992" x="94.67198181152344" b1="1.0815001583099366E-4" b2="1.0815001583099366E-4" node1="2" voltageLevelId1="VL9" node2="1" voltageLevelId2="VL11"/>
    <iidm:line id="lne_2_3_1" r="2.817992478609085" x="21.60901963710785" g1="5.412337245047638E-22" b1="7.191954040527343E-5" g2="5.412337245047638E-22" b2="7.191954040527343E-5" node1="2" voltageLevelId1="VL10" node2="3" voltageLevelId2="VL11"/>
    <iidm:line id="lne_2_3_2" r="2.817992478609085" x="21.60901963710785" g1="5.412337245047638E-22" b1="7.191954040527343E-5" g2="5.412337245047638E-22" b2="7.191954040527343E-5" node1="3" voltageLevelId1="VL10" node2="4" voltageLevelId2="VL11"/>
</iidm:network>
